

--------------------------------------------------------------------------------

Command: run Delft3D-FLOW
   Starting Delft3D-FLOW computation ...
--------------------------------------------------------------------------------
       Deltares, FLOW2D3D Version 6.03.00.62434, Oct 24 2018, 14:57:52
       flow2d3d.dll entry Flow2D3D::Run
--------------------------------------------------------------------------------

Part I    - Initialisation Time Dep. Data module...    
            runid : simulation
Part II   - Creating intermediate files...             
Part III  - Initialisation of the Execution module...  
Part IV   - Reading complete MD-file...                     
Part V    - Initialisation & checking input...              
Part VI   - Initialisation & checking second part...        
Part VII  - Initialisation output...                        
Part VIII - Start Simulation...                             
 
  Time to finish   0s,    0.0% completed, time steps left  5760
  Time to finish   9m  7s,    0.0% completed, time steps left  5759
  Time to finish   7m 58s,    0.0% completed, time steps left  5758
  Time to finish   7m 25s,    0.1% completed, time steps left  5757
  Time to finish   7m  6s,    0.1% completed, time steps left  5756
  Time to finish   6m 56s,    0.1% completed, time steps left  5755
  Time to finish   6m 48s,    0.1% completed, time steps left  5754
  Time to finish   6m 44s,    0.1% completed, time steps left  5753
  Time to finish   6m 40s,    0.1% completed, time steps left  5752
  Time to finish   6m 36s,    0.2% completed, time steps left  5751
  Time to finish   6m 37s,    0.2% completed, time steps left  5750
  Time to finish   6m 35s,    0.2% completed, time steps left  5749
  Time to finish   6m 31s,    0.2% completed, time steps left  5748
  Time to finish   6m 29s,    0.2% completed, time steps left  5747
  Time to finish   6m 26s,    0.2% completed, time steps left  5746
  Time to finish   6m 25s,    0.3% completed, time steps left  5745
  Time to finish   6m 23s,    0.3% completed, time steps left  5744
  Time to finish   6m 21s,    0.3% completed, time steps left  5743
  Time to finish   6m 20s,    0.3% completed, time steps left  5742
  Time to finish   6m 21s,    0.3% completed, time steps left  5741
  Time to finish   6m 25s,    0.3% completed, time steps left  5740
  Time to finish   6m 24s,    0.4% completed, time steps left  5739
  Time to finish   6m 22s,    0.4% completed, time steps left  5738
  Time to finish   6m 21s,    0.4% completed, time steps left  5737
  Time to finish   6m 21s,    0.4% completed, time steps left  5736
  Time to finish   6m 20s,    0.4% completed, time steps left  5735
  Time to finish   6m 19s,    0.5% completed, time steps left  5734
  Time to finish   6m 19s,    0.5% completed, time steps left  5733
  Time to finish   6m 30s,    0.5% completed, time steps left  5732
  Time to finish   6m 34s,    0.5% completed, time steps left  5731
  Time to finish   6m 33s,    0.5% completed, time steps left  5730
  Time to finish   6m 31s,    0.5% completed, time steps left  5729
  Time to finish   6m 32s,    0.6% completed, time steps left  5728
  Time to finish   6m 35s,    0.6% completed, time steps left  5727
  Time to finish   6m 35s,    0.6% completed, time steps left  5726
  Time to finish   6m 34s,    0.6% completed, time steps left  5725
  Time to finish   6m 33s,    0.6% completed, time steps left  5724
  Time to finish   6m 31s,    0.6% completed, time steps left  5723
  Time to finish   6m 30s,    0.7% completed, time steps left  5722
  Time to finish   6m 30s,    0.7% completed, time steps left  5721
  Time to finish   6m 30s,    0.7% completed, time steps left  5720
  Time to finish   6m 29s,    0.7% completed, time steps left  5719
  Time to finish   6m 29s,    0.7% completed, time steps left  5718
  Time to finish   6m 28s,    0.7% completed, time steps left  5717
  Time to finish   6m 28s,    0.8% completed, time steps left  5716
  Time to finish   6m 28s,    0.8% completed, time steps left  5715
  Time to finish   6m 28s,    0.8% completed, time steps left  5714
  Time to finish   6m 28s,    0.8% completed, time steps left  5713
  Time to finish   6m 28s,    0.8% completed, time steps left  5712
  Time to finish   6m 27s,    0.9% completed, time steps left  5711
  Time to finish   6m 27s,    0.9% completed, time steps left  5710
  Time to finish   6m 26s,    0.9% completed, time steps left  5709
  Time to finish   6m 26s,    0.9% completed, time steps left  5708
  Time to finish   6m 25s,    0.9% completed, time steps left  5707
  Time to finish   6m 25s,    0.9% completed, time steps left  5706
  Time to finish   6m 24s,    1.0% completed, time steps left  5705
  Time to finish   6m 24s,    1.0% completed, time steps left  5704
  Time to finish   6m 23s,    1.0% completed, time steps left  5703
  Time to finish   6m 23s,    1.0% completed, time steps left  5702
  Time to finish   6m 23s,    1.0% completed, time steps left  5701
  Time to finish   6m 22s,    1.0% completed, time steps left  5700
  Time to finish   6m 22s,    1.1% completed, time steps left  5699
  Time to finish   6m 21s,    1.1% completed, time steps left  5698
  Time to finish   6m 21s,    1.1% completed, time steps left  5697
  Time to finish   6m 21s,    1.1% completed, time steps left  5696
  Time to finish   6m 20s,    1.1% completed, time steps left  5695
  Time to finish   6m 20s,    1.1% completed, time steps left  5694
  Time to finish   6m 20s,    1.2% completed, time steps left  5693
  Time to finish   6m 19s,    1.2% completed, time steps left  5692
  Time to finish   6m 19s,    1.2% completed, time steps left  5691
  Time to finish   6m 19s,    1.2% completed, time steps left  5690
  Time to finish   6m 19s,    1.2% completed, time steps left  5689
  Time to finish   6m 18s,    1.2% completed, time steps left  5688
  Time to finish   6m 18s,    1.3% completed, time steps left  5687
  Time to finish   6m 18s,    1.3% completed, time steps left  5686
  Time to finish   6m 18s,    1.3% completed, time steps left  5685
  Time to finish   6m 17s,    1.3% completed, time steps left  5684
  Time to finish   6m 17s,    1.3% completed, time steps left  5683
  Time to finish   6m 17s,    1.4% completed, time steps left  5682
  Time to finish   6m 17s,    1.4% completed, time steps left  5681
  Time to finish   6m 18s,    1.4% completed, time steps left  5680
  Time to finish   6m 17s,    1.4% completed, time steps left  5679
  Time to finish   6m 17s,    1.4% completed, time steps left  5678
  Time to finish   6m 17s,    1.4% completed, time steps left  5677
  Time to finish   6m 16s,    1.5% completed, time steps left  5676
  Time to finish   6m 16s,    1.5% completed, time steps left  5675
  Time to finish   6m 16s,    1.5% completed, time steps left  5674
  Time to finish   6m 15s,    1.5% completed, time steps left  5673
  Time to finish   6m 15s,    1.5% completed, time steps left  5672
  Time to finish   6m 15s,    1.5% completed, time steps left  5671
  Time to finish   6m 14s,    1.6% completed, time steps left  5670
  Time to finish   6m 14s,    1.6% completed, time steps left  5669
  Time to finish   6m 14s,    1.6% completed, time steps left  5668
  Time to finish   6m 14s,    1.6% completed, time steps left  5667
  Time to finish   6m 13s,    1.6% completed, time steps left  5666
  Time to finish   6m 13s,    1.6% completed, time steps left  5665
  Time to finish   6m 14s,    1.7% completed, time steps left  5664
  Time to finish   6m 14s,    1.7% completed, time steps left  5663
  Time to finish   6m 14s,    1.7% completed, time steps left  5662
  Time to finish   6m 13s,    1.7% completed, time steps left  5661
  Time to finish   6m 13s,    1.7% completed, time steps left  5660
  Time to finish   6m 13s,    1.8% completed, time steps left  5659
  Time to finish   6m 12s,    1.8% completed, time steps left  5658
  Time to finish   6m 12s,    1.8% completed, time steps left  5657
  Time to finish   6m 12s,    1.8% completed, time steps left  5656
  Time to finish   6m 12s,    1.8% completed, time steps left  5655
  Time to finish   6m 12s,    1.8% completed, time steps left  5654
  Time to finish   6m 12s,    1.9% completed, time steps left  5653
  Time to finish   6m 11s,    1.9% completed, time steps left  5652
  Time to finish   6m 11s,    1.9% completed, time steps left  5651
  Time to finish   6m 11s,    1.9% completed, time steps left  5650
  Time to finish   6m 11s,    1.9% completed, time steps left  5649
  Time to finish   6m 11s,    1.9% completed, time steps left  5648
  Time to finish   6m 10s,    2.0% completed, time steps left  5647
  Time to finish   6m 10s,    2.0% completed, time steps left  5646
  Time to finish   6m 10s,    2.0% completed, time steps left  5645
  Time to finish   6m 10s,    2.0% completed, time steps left  5644
  Time to finish   6m  9s,    2.0% completed, time steps left  5643
  Time to finish   6m  9s,    2.0% completed, time steps left  5642
  Time to finish   6m  9s,    2.1% completed, time steps left  5641
  Time to finish   6m  9s,    2.1% completed, time steps left  5640
  Time to finish   6m  9s,    2.1% completed, time steps left  5639
  Time to finish   6m  9s,    2.1% completed, time steps left  5638
  Time to finish   6m  9s,    2.1% completed, time steps left  5637
  Time to finish   6m  9s,    2.2% completed, time steps left  5636
  Time to finish   6m  9s,    2.2% completed, time steps left  5635
  Time to finish   6m  9s,    2.2% completed, time steps left  5634
  Time to finish   6m  8s,    2.2% completed, time steps left  5633
  Time to finish   6m  8s,    2.2% completed, time steps left  5632
  Time to finish   6m  8s,    2.2% completed, time steps left  5631
  Time to finish   6m  8s,    2.3% completed, time steps left  5630
  Time to finish   6m  8s,    2.3% completed, time steps left  5629
  Time to finish   6m  8s,    2.3% completed, time steps left  5628
  Time to finish   6m  8s,    2.3% completed, time steps left  5627
  Time to finish   6m  8s,    2.3% completed, time steps left  5626
  Time to finish   6m  7s,    2.3% completed, time steps left  5625
  Time to finish   6m  7s,    2.4% completed, time steps left  5624
  Time to finish   6m  7s,    2.4% completed, time steps left  5623
  Time to finish   6m  7s,    2.4% completed, time steps left  5622
  Time to finish   6m  7s,    2.4% completed, time steps left  5621
  Time to finish   6m  7s,    2.4% completed, time steps left  5620
  Time to finish   6m  7s,    2.4% completed, time steps left  5619
  Time to finish   6m  7s,    2.5% completed, time steps left  5618
  Time to finish   6m  7s,    2.5% completed, time steps left  5617
  Time to finish   6m  6s,    2.5% completed, time steps left  5616
  Time to finish   6m  6s,    2.5% completed, time steps left  5615
  Time to finish   6m  6s,    2.5% completed, time steps left  5614
  Time to finish   6m  6s,    2.6% completed, time steps left  5613
  Time to finish   6m  6s,    2.6% completed, time steps left  5612
  Time to finish   6m  6s,    2.6% completed, time steps left  5611
  Time to finish   6m  6s,    2.6% completed, time steps left  5610
  Time to finish   6m  5s,    2.6% completed, time steps left  5609
  Time to finish   6m  5s,    2.6% completed, time steps left  5608
  Time to finish   6m  5s,    2.7% completed, time steps left  5607
  Time to finish   6m  5s,    2.7% completed, time steps left  5606
  Time to finish   6m  5s,    2.7% completed, time steps left  5605
  Time to finish   6m  4s,    2.7% completed, time steps left  5604
  Time to finish   6m  5s,    2.7% completed, time steps left  5603
  Time to finish   6m  5s,    2.7% completed, time steps left  5602
  Time to finish   6m  4s,    2.8% completed, time steps left  5601
  Time to finish   6m  4s,    2.8% completed, time steps left  5600
  Time to finish   6m  4s,    2.8% completed, time steps left  5599
  Time to finish   6m  4s,    2.8% completed, time steps left  5598
  Time to finish   6m  4s,    2.8% completed, time steps left  5597
  Time to finish   6m  4s,    2.8% completed, time steps left  5596
  Time to finish   6m  3s,    2.9% completed, time steps left  5595
  Time to finish   6m  3s,    2.9% completed, time steps left  5594
  Time to finish   6m  3s,    2.9% completed, time steps left  5593
  Time to finish   6m  3s,    2.9% completed, time steps left  5592
  Time to finish   6m  3s,    2.9% completed, time steps left  5591
  Time to finish   6m  3s,    3.0% completed, time steps left  5590
  Time to finish   6m  3s,    3.0% completed, time steps left  5589
  Time to finish   6m  2s,    3.0% completed, time steps left  5588
  Time to finish   6m  2s,    3.0% completed, time steps left  5587
  Time to finish   6m  2s,    3.0% completed, time steps left  5586
  Time to finish   6m  2s,    3.0% completed, time steps left  5585
  Time to finish   6m  2s,    3.1% completed, time steps left  5584
  Time to finish   6m  2s,    3.1% completed, time steps left  5583
  Time to finish   6m  2s,    3.1% completed, time steps left  5582
  Time to finish   6m  2s,    3.1% completed, time steps left  5581
  Time to finish   6m  2s,    3.1% completed, time steps left  5580
  Time to finish   6m  2s,    3.1% completed, time steps left  5579
  Time to finish   6m  1s,    3.2% completed, time steps left  5578
  Time to finish   6m  1s,    3.2% completed, time steps left  5577
  Time to finish   6m  1s,    3.2% completed, time steps left  5576
  Time to finish   6m  1s,    3.2% completed, time steps left  5575
  Time to finish   6m  1s,    3.2% completed, time steps left  5574
  Time to finish   6m  1s,    3.2% completed, time steps left  5573
  Time to finish   6m  1s,    3.3% completed, time steps left  5572
  Time to finish   6m  0s,    3.3% completed, time steps left  5571
  Time to finish   6m  0s,    3.3% completed, time steps left  5570
  Time to finish   6m  0s,    3.3% completed, time steps left  5569
  Time to finish   6m  0s,    3.3% completed, time steps left  5568
  Time to finish   6m  0s,    3.4% completed, time steps left  5567
  Time to finish   6m  0s,    3.4% completed, time steps left  5566
  Time to finish   6m  0s,    3.4% completed, time steps left  5565
  Time to finish   6m  0s,    3.4% completed, time steps left  5564
  Time to finish   5m 59s,    3.4% completed, time steps left  5563
  Time to finish   5m 59s,    3.4% completed, time steps left  5562
  Time to finish   5m 59s,    3.5% completed, time steps left  5561
  Time to finish   5m 59s,    3.5% completed, time steps left  5560
  Time to finish   5m 59s,    3.5% completed, time steps left  5559
  Time to finish   5m 59s,    3.5% completed, time steps left  5558
  Time to finish   5m 59s,    3.5% completed, time steps left  5557
  Time to finish   5m 59s,    3.5% completed, time steps left  5556
  Time to finish   5m 59s,    3.6% completed, time steps left  5555
  Time to finish   5m 59s,    3.6% completed, time steps left  5554
  Time to finish   5m 59s,    3.6% completed, time steps left  5553
  Time to finish   5m 59s,    3.6% completed, time steps left  5552
  Time to finish   5m 59s,    3.6% completed, time steps left  5551
  Time to finish   5m 59s,    3.6% completed, time steps left  5550
  Time to finish   5m 58s,    3.7% completed, time steps left  5549
  Time to finish   5m 58s,    3.7% completed, time steps left  5548
  Time to finish   5m 58s,    3.7% completed, time steps left  5547
  Time to finish   5m 58s,    3.7% completed, time steps left  5546
  Time to finish   5m 58s,    3.7% completed, time steps left  5545
  Time to finish   5m 58s,    3.8% completed, time steps left  5544
  Time to finish   5m 58s,    3.8% completed, time steps left  5543
  Time to finish   5m 58s,    3.8% completed, time steps left  5542
  Time to finish   5m 58s,    3.8% completed, time steps left  5541
  Time to finish   5m 58s,    3.8% completed, time steps left  5540
  Time to finish   5m 58s,    3.8% completed, time steps left  5539
  Time to finish   5m 57s,    3.9% completed, time steps left  5538
  Time to finish   5m 57s,    3.9% completed, time steps left  5537
  Time to finish   5m 57s,    3.9% completed, time steps left  5536
  Time to finish   5m 57s,    3.9% completed, time steps left  5535
  Time to finish   5m 57s,    3.9% completed, time steps left  5534
  Time to finish   5m 57s,    3.9% completed, time steps left  5533
  Time to finish   5m 57s,    4.0% completed, time steps left  5532
  Time to finish   5m 57s,    4.0% completed, time steps left  5531
  Time to finish   5m 56s,    4.0% completed, time steps left  5530
  Time to finish   5m 56s,    4.0% completed, time steps left  5529
  Time to finish   5m 56s,    4.0% completed, time steps left  5528
  Time to finish   5m 56s,    4.0% completed, time steps left  5527
  Time to finish   5m 56s,    4.1% completed, time steps left  5526
  Time to finish   5m 56s,    4.1% completed, time steps left  5525
  Time to finish   5m 56s,    4.1% completed, time steps left  5524
  Time to finish   5m 56s,    4.1% completed, time steps left  5523
  Time to finish   5m 56s,    4.1% completed, time steps left  5522
  Time to finish   5m 56s,    4.1% completed, time steps left  5521
  Time to finish   5m 56s,    4.2% completed, time steps left  5520
  Time to finish   5m 56s,    4.2% completed, time steps left  5519
  Time to finish   5m 56s,    4.2% completed, time steps left  5518
  Time to finish   5m 56s,    4.2% completed, time steps left  5517
  Time to finish   5m 56s,    4.2% completed, time steps left  5516
  Time to finish   5m 56s,    4.3% completed, time steps left  5515
  Time to finish   5m 56s,    4.3% completed, time steps left  5514
  Time to finish   5m 55s,    4.3% completed, time steps left  5513
  Time to finish   5m 55s,    4.3% completed, time steps left  5512
  Time to finish   5m 55s,    4.3% completed, time steps left  5511
  Time to finish   5m 55s,    4.3% completed, time steps left  5510
  Time to finish   5m 55s,    4.4% completed, time steps left  5509
  Time to finish   5m 55s,    4.4% completed, time steps left  5508
  Time to finish   5m 55s,    4.4% completed, time steps left  5507
  Time to finish   5m 55s,    4.4% completed, time steps left  5506
  Time to finish   5m 55s,    4.4% completed, time steps left  5505
  Time to finish   5m 54s,    4.4% completed, time steps left  5504
  Time to finish   5m 54s,    4.5% completed, time steps left  5503
  Time to finish   5m 54s,    4.5% completed, time steps left  5502
  Time to finish   5m 54s,    4.5% completed, time steps left  5501
  Time to finish   5m 54s,    4.5% completed, time steps left  5500
  Time to finish   5m 54s,    4.5% completed, time steps left  5499
  Time to finish   5m 54s,    4.5% completed, time steps left  5498
  Time to finish   5m 54s,    4.6% completed, time steps left  5497
  Time to finish   5m 54s,    4.6% completed, time steps left  5496
  Time to finish   5m 53s,    4.6% completed, time steps left  5495
  Time to finish   5m 53s,    4.6% completed, time steps left  5494
  Time to finish   5m 53s,    4.6% completed, time steps left  5493
  Time to finish   5m 53s,    4.7% completed, time steps left  5492
  Time to finish   5m 53s,    4.7% completed, time steps left  5491
  Time to finish   5m 53s,    4.7% completed, time steps left  5490
  Time to finish   5m 53s,    4.7% completed, time steps left  5489
  Time to finish   5m 53s,    4.7% completed, time steps left  5488
  Time to finish   5m 53s,    4.7% completed, time steps left  5487
  Time to finish   5m 53s,    4.8% completed, time steps left  5486
  Time to finish   5m 53s,    4.8% completed, time steps left  5485
  Time to finish   5m 53s,    4.8% completed, time steps left  5484
  Time to finish   5m 53s,    4.8% completed, time steps left  5483
  Time to finish   5m 53s,    4.8% completed, time steps left  5482
  Time to finish   5m 53s,    4.8% completed, time steps left  5481
  Time to finish   5m 53s,    4.9% completed, time steps left  5480
  Time to finish   5m 53s,    4.9% completed, time steps left  5479
  Time to finish   5m 52s,    4.9% completed, time steps left  5478
  Time to finish   5m 52s,    4.9% completed, time steps left  5477
  Time to finish   5m 52s,    4.9% completed, time steps left  5476
  Time to finish   5m 52s,    4.9% completed, time steps left  5475
  Time to finish   5m 52s,    5.0% completed, time steps left  5474
  Time to finish   5m 52s,    5.0% completed, time steps left  5473
  Time to finish   5m 52s,    5.0% completed, time steps left  5472
  Time to finish   5m 52s,    5.0% completed, time steps left  5471
  Time to finish   5m 52s,    5.0% completed, time steps left  5470
  Time to finish   5m 52s,    5.1% completed, time steps left  5469
  Time to finish   5m 52s,    5.1% completed, time steps left  5468
  Time to finish   5m 52s,    5.1% completed, time steps left  5467
  Time to finish   5m 51s,    5.1% completed, time steps left  5466
  Time to finish   5m 51s,    5.1% completed, time steps left  5465
  Time to finish   5m 51s,    5.1% completed, time steps left  5464
  Time to finish   5m 51s,    5.2% completed, time steps left  5463
  Time to finish   5m 51s,    5.2% completed, time steps left  5462
  Time to finish   5m 51s,    5.2% completed, time steps left  5461
  Time to finish   5m 51s,    5.2% completed, time steps left  5460
  Time to finish   5m 51s,    5.2% completed, time steps left  5459
  Time to finish   5m 51s,    5.2% completed, time steps left  5458
  Time to finish   5m 51s,    5.3% completed, time steps left  5457
  Time to finish   5m 51s,    5.3% completed, time steps left  5456
  Time to finish   5m 51s,    5.3% completed, time steps left  5455
  Time to finish   5m 50s,    5.3% completed, time steps left  5454
  Time to finish   5m 50s,    5.3% completed, time steps left  5453
  Time to finish   5m 50s,    5.3% completed, time steps left  5452
  Time to finish   5m 50s,    5.4% completed, time steps left  5451
  Time to finish   5m 50s,    5.4% completed, time steps left  5450
  Time to finish   5m 50s,    5.4% completed, time steps left  5449
  Time to finish   5m 50s,    5.4% completed, time steps left  5448
  Time to finish   5m 50s,    5.4% completed, time steps left  5447
  Time to finish   5m 50s,    5.5% completed, time steps left  5446
  Time to finish   5m 50s,    5.5% completed, time steps left  5445
  Time to finish   5m 50s,    5.5% completed, time steps left  5444
  Time to finish   5m 49s,    5.5% completed, time steps left  5443
  Time to finish   5m 49s,    5.5% completed, time steps left  5442
  Time to finish   5m 49s,    5.5% completed, time steps left  5441
  Time to finish   5m 49s,    5.6% completed, time steps left  5440
  Time to finish   5m 49s,    5.6% completed, time steps left  5439
  Time to finish   5m 49s,    5.6% completed, time steps left  5438
  Time to finish   5m 49s,    5.6% completed, time steps left  5437
  Time to finish   5m 49s,    5.6% completed, time steps left  5436
  Time to finish   5m 49s,    5.6% completed, time steps left  5435
  Time to finish   5m 49s,    5.7% completed, time steps left  5434
  Time to finish   5m 48s,    5.7% completed, time steps left  5433
  Time to finish   5m 48s,    5.7% completed, time steps left  5432
  Time to finish   5m 48s,    5.7% completed, time steps left  5431
  Time to finish   5m 48s,    5.7% completed, time steps left  5430
  Time to finish   5m 48s,    5.7% completed, time steps left  5429
  Time to finish   5m 48s,    5.8% completed, time steps left  5428
  Time to finish   5m 48s,    5.8% completed, time steps left  5427
  Time to finish   5m 48s,    5.8% completed, time steps left  5426
  Time to finish   5m 48s,    5.8% completed, time steps left  5425
  Time to finish   5m 48s,    5.8% completed, time steps left  5424
  Time to finish   5m 48s,    5.9% completed, time steps left  5423
  Time to finish   5m 48s,    5.9% completed, time steps left  5422
  Time to finish   5m 48s,    5.9% completed, time steps left  5421
  Time to finish   5m 48s,    5.9% completed, time steps left  5420
  Time to finish   5m 48s,    5.9% completed, time steps left  5419
  Time to finish   5m 48s,    5.9% completed, time steps left  5418
  Time to finish   5m 48s,    6.0% completed, time steps left  5417
  Time to finish   5m 47s,    6.0% completed, time steps left  5416
  Time to finish   5m 47s,    6.0% completed, time steps left  5415
  Time to finish   5m 47s,    6.0% completed, time steps left  5414
  Time to finish   5m 47s,    6.0% completed, time steps left  5413
  Time to finish   5m 47s,    6.0% completed, time steps left  5412
  Time to finish   5m 47s,    6.1% completed, time steps left  5411
  Time to finish   5m 47s,    6.1% completed, time steps left  5410
  Time to finish   5m 47s,    6.1% completed, time steps left  5409
  Time to finish   5m 47s,    6.1% completed, time steps left  5408
  Time to finish   5m 47s,    6.1% completed, time steps left  5407
  Time to finish   5m 47s,    6.1% completed, time steps left  5406
  Time to finish   5m 47s,    6.2% completed, time steps left  5405
  Time to finish   5m 47s,    6.2% completed, time steps left  5404
  Time to finish   5m 47s,    6.2% completed, time steps left  5403
  Time to finish   5m 47s,    6.2% completed, time steps left  5402
  Time to finish   5m 47s,    6.2% completed, time steps left  5401
  Time to finish   5m 47s,    6.2% completed, time steps left  5400
  Time to finish   5m 47s,    6.3% completed, time steps left  5399
  Time to finish   5m 47s,    6.3% completed, time steps left  5398
  Time to finish   5m 47s,    6.3% completed, time steps left  5397
  Time to finish   5m 47s,    6.3% completed, time steps left  5396
  Time to finish   5m 46s,    6.3% completed, time steps left  5395
  Time to finish   5m 46s,    6.4% completed, time steps left  5394
  Time to finish   5m 46s,    6.4% completed, time steps left  5393
  Time to finish   5m 46s,    6.4% completed, time steps left  5392
  Time to finish   5m 46s,    6.4% completed, time steps left  5391
  Time to finish   5m 46s,    6.4% completed, time steps left  5390
  Time to finish   5m 46s,    6.4% completed, time steps left  5389
  Time to finish   5m 46s,    6.5% completed, time steps left  5388
  Time to finish   5m 46s,    6.5% completed, time steps left  5387
  Time to finish   5m 46s,    6.5% completed, time steps left  5386
  Time to finish   5m 46s,    6.5% completed, time steps left  5385
  Time to finish   5m 46s,    6.5% completed, time steps left  5384
  Time to finish   5m 46s,    6.5% completed, time steps left  5383
  Time to finish   5m 46s,    6.6% completed, time steps left  5382
  Time to finish   5m 46s,    6.6% completed, time steps left  5381
  Time to finish   5m 46s,    6.6% completed, time steps left  5380
  Time to finish   5m 45s,    6.6% completed, time steps left  5379
  Time to finish   5m 45s,    6.6% completed, time steps left  5378
  Time to finish   5m 45s,    6.6% completed, time steps left  5377
  Time to finish   5m 45s,    6.7% completed, time steps left  5376
  Time to finish   5m 45s,    6.7% completed, time steps left  5375
  Time to finish   5m 45s,    6.7% completed, time steps left  5374
  Time to finish   5m 45s,    6.7% completed, time steps left  5373
  Time to finish   5m 45s,    6.7% completed, time steps left  5372
  Time to finish   5m 45s,    6.8% completed, time steps left  5371
  Time to finish   5m 45s,    6.8% completed, time steps left  5370
  Time to finish   5m 45s,    6.8% completed, time steps left  5369
  Time to finish   5m 44s,    6.8% completed, time steps left  5368
  Time to finish   5m 44s,    6.8% completed, time steps left  5367
  Time to finish   5m 44s,    6.8% completed, time steps left  5366
  Time to finish   5m 44s,    6.9% completed, time steps left  5365
  Time to finish   5m 44s,    6.9% completed, time steps left  5364
  Time to finish   5m 44s,    6.9% completed, time steps left  5363
  Time to finish   5m 44s,    6.9% completed, time steps left  5362
  Time to finish   5m 44s,    6.9% completed, time steps left  5361
  Time to finish   5m 44s,    6.9% completed, time steps left  5360
  Time to finish   5m 44s,    7.0% completed, time steps left  5359
  Time to finish   5m 44s,    7.0% completed, time steps left  5358
  Time to finish   5m 43s,    7.0% completed, time steps left  5357
  Time to finish   5m 43s,    7.0% completed, time steps left  5356
  Time to finish   5m 43s,    7.0% completed, time steps left  5355
  Time to finish   5m 43s,    7.0% completed, time steps left  5354
  Time to finish   5m 43s,    7.1% completed, time steps left  5353
  Time to finish   5m 43s,    7.1% completed, time steps left  5352
  Time to finish   5m 43s,    7.1% completed, time steps left  5351
  Time to finish   5m 43s,    7.1% completed, time steps left  5350
  Time to finish   5m 43s,    7.1% completed, time steps left  5349
  Time to finish   5m 43s,    7.2% completed, time steps left  5348
  Time to finish   5m 43s,    7.2% completed, time steps left  5347
  Time to finish   5m 43s,    7.2% completed, time steps left  5346
  Time to finish   5m 43s,    7.2% completed, time steps left  5345
  Time to finish   5m 43s,    7.2% completed, time steps left  5344
  Time to finish   5m 42s,    7.2% completed, time steps left  5343
  Time to finish   5m 42s,    7.3% completed, time steps left  5342
  Time to finish   5m 42s,    7.3% completed, time steps left  5341
  Time to finish   5m 42s,    7.3% completed, time steps left  5340
  Time to finish   5m 42s,    7.3% completed, time steps left  5339
  Time to finish   5m 42s,    7.3% completed, time steps left  5338
  Time to finish   5m 42s,    7.3% completed, time steps left  5337
  Time to finish   5m 42s,    7.4% completed, time steps left  5336
  Time to finish   5m 42s,    7.4% completed, time steps left  5335
  Time to finish   5m 42s,    7.4% completed, time steps left  5334
  Time to finish   5m 42s,    7.4% completed, time steps left  5333
  Time to finish   5m 41s,    7.4% completed, time steps left  5332
  Time to finish   5m 41s,    7.4% completed, time steps left  5331
  Time to finish   5m 41s,    7.5% completed, time steps left  5330
  Time to finish   5m 41s,    7.5% completed, time steps left  5329
  Time to finish   5m 41s,    7.5% completed, time steps left  5328
  Time to finish   5m 41s,    7.5% completed, time steps left  5327
  Time to finish   5m 41s,    7.5% completed, time steps left  5326
  Time to finish   5m 41s,    7.6% completed, time steps left  5325
  Time to finish   5m 41s,    7.6% completed, time steps left  5324
  Time to finish   5m 41s,    7.6% completed, time steps left  5323
  Time to finish   5m 41s,    7.6% completed, time steps left  5322
  Time to finish   5m 41s,    7.6% completed, time steps left  5321
  Time to finish   5m 40s,    7.6% completed, time steps left  5320
  Time to finish   5m 40s,    7.7% completed, time steps left  5319
  Time to finish   5m 40s,    7.7% completed, time steps left  5318
  Time to finish   5m 40s,    7.7% completed, time steps left  5317
  Time to finish   5m 40s,    7.7% completed, time steps left  5316
  Time to finish   5m 40s,    7.7% completed, time steps left  5315
  Time to finish   5m 40s,    7.7% completed, time steps left  5314
  Time to finish   5m 40s,    7.8% completed, time steps left  5313
  Time to finish   5m 40s,    7.8% completed, time steps left  5312
  Time to finish   5m 40s,    7.8% completed, time steps left  5311
  Time to finish   5m 40s,    7.8% completed, time steps left  5310
  Time to finish   5m 40s,    7.8% completed, time steps left  5309
  Time to finish   5m 40s,    7.8% completed, time steps left  5308
  Time to finish   5m 40s,    7.9% completed, time steps left  5307
  Time to finish   5m 40s,    7.9% completed, time steps left  5306
  Time to finish   5m 39s,    7.9% completed, time steps left  5305
  Time to finish   5m 39s,    7.9% completed, time steps left  5304
  Time to finish   5m 39s,    7.9% completed, time steps left  5303
  Time to finish   5m 39s,    8.0% completed, time steps left  5302
  Time to finish   5m 39s,    8.0% completed, time steps left  5301
  Time to finish   5m 39s,    8.0% completed, time steps left  5300
  Time to finish   5m 39s,    8.0% completed, time steps left  5299
  Time to finish   5m 39s,    8.0% completed, time steps left  5298
  Time to finish   5m 39s,    8.0% completed, time steps left  5297
  Time to finish   5m 39s,    8.1% completed, time steps left  5296
  Time to finish   5m 39s,    8.1% completed, time steps left  5295
  Time to finish   5m 39s,    8.1% completed, time steps left  5294
  Time to finish   5m 39s,    8.1% completed, time steps left  5293
  Time to finish   5m 38s,    8.1% completed, time steps left  5292
  Time to finish   5m 38s,    8.1% completed, time steps left  5291
  Time to finish   5m 38s,    8.2% completed, time steps left  5290
  Time to finish   5m 38s,    8.2% completed, time steps left  5289
  Time to finish   5m 38s,    8.2% completed, time steps left  5288
  Time to finish   5m 38s,    8.2% completed, time steps left  5287
  Time to finish   5m 38s,    8.2% completed, time steps left  5286
  Time to finish   5m 38s,    8.2% completed, time steps left  5285
  Time to finish   5m 38s,    8.3% completed, time steps left  5284
  Time to finish   5m 38s,    8.3% completed, time steps left  5283
  Time to finish   5m 38s,    8.3% completed, time steps left  5282
  Time to finish   5m 38s,    8.3% completed, time steps left  5281
  Time to finish   5m 38s,    8.3% completed, time steps left  5280
  Time to finish   5m 38s,    8.4% completed, time steps left  5279
  Time to finish   5m 38s,    8.4% completed, time steps left  5278
  Time to finish   5m 37s,    8.4% completed, time steps left  5277
  Time to finish   5m 37s,    8.4% completed, time steps left  5276
  Time to finish   5m 37s,    8.4% completed, time steps left  5275
  Time to finish   5m 37s,    8.4% completed, time steps left  5274
  Time to finish   5m 37s,    8.5% completed, time steps left  5273
  Time to finish   5m 37s,    8.5% completed, time steps left  5272
  Time to finish   5m 37s,    8.5% completed, time steps left  5271
  Time to finish   5m 37s,    8.5% completed, time steps left  5270
  Time to finish   5m 37s,    8.5% completed, time steps left  5269
  Time to finish   5m 37s,    8.5% completed, time steps left  5268
  Time to finish   5m 37s,    8.6% completed, time steps left  5267
  Time to finish   5m 37s,    8.6% completed, time steps left  5266
  Time to finish   5m 37s,    8.6% completed, time steps left  5265
  Time to finish   5m 37s,    8.6% completed, time steps left  5264
  Time to finish   5m 37s,    8.6% completed, time steps left  5263
  Time to finish   5m 36s,    8.6% completed, time steps left  5262
  Time to finish   5m 36s,    8.7% completed, time steps left  5261
  Time to finish   5m 36s,    8.7% completed, time steps left  5260
  Time to finish   5m 36s,    8.7% completed, time steps left  5259
  Time to finish   5m 36s,    8.7% completed, time steps left  5258
  Time to finish   5m 36s,    8.7% completed, time steps left  5257
  Time to finish   5m 36s,    8.8% completed, time steps left  5256
  Time to finish   5m 36s,    8.8% completed, time steps left  5255
  Time to finish   5m 36s,    8.8% completed, time steps left  5254
  Time to finish   5m 36s,    8.8% completed, time steps left  5253
  Time to finish   5m 36s,    8.8% completed, time steps left  5252
  Time to finish   5m 36s,    8.8% completed, time steps left  5251
  Time to finish   5m 35s,    8.9% completed, time steps left  5250
  Time to finish   5m 35s,    8.9% completed, time steps left  5249
  Time to finish   5m 35s,    8.9% completed, time steps left  5248
  Time to finish   5m 35s,    8.9% completed, time steps left  5247
  Time to finish   5m 35s,    8.9% completed, time steps left  5246
  Time to finish   5m 35s,    8.9% completed, time steps left  5245
  Time to finish   5m 35s,    9.0% completed, time steps left  5244
  Time to finish   5m 35s,    9.0% completed, time steps left  5243
  Time to finish   5m 35s,    9.0% completed, time steps left  5242
  Time to finish   5m 35s,    9.0% completed, time steps left  5241
  Time to finish   5m 35s,    9.0% completed, time steps left  5240
  Time to finish   5m 35s,    9.0% completed, time steps left  5239
  Time to finish   5m 35s,    9.1% completed, time steps left  5238
  Time to finish   5m 35s,    9.1% completed, time steps left  5237
  Time to finish   5m 34s,    9.1% completed, time steps left  5236
  Time to finish   5m 34s,    9.1% completed, time steps left  5235
  Time to finish   5m 34s,    9.1% completed, time steps left  5234
  Time to finish   5m 34s,    9.1% completed, time steps left  5233
  Time to finish   5m 34s,    9.2% completed, time steps left  5232
  Time to finish   5m 34s,    9.2% completed, time steps left  5231
  Time to finish   5m 34s,    9.2% completed, time steps left  5230
  Time to finish   5m 34s,    9.2% completed, time steps left  5229
  Time to finish   5m 34s,    9.2% completed, time steps left  5228
  Time to finish   5m 34s,    9.3% completed, time steps left  5227
  Time to finish   5m 34s,    9.3% completed, time steps left  5226
  Time to finish   5m 34s,    9.3% completed, time steps left  5225
  Time to finish   5m 34s,    9.3% completed, time steps left  5224
  Time to finish   5m 34s,    9.3% completed, time steps left  5223
  Time to finish   5m 34s,    9.3% completed, time steps left  5222
  Time to finish   5m 33s,    9.4% completed, time steps left  5221
  Time to finish   5m 33s,    9.4% completed, time steps left  5220
  Time to finish   5m 33s,    9.4% completed, time steps left  5219
  Time to finish   5m 33s,    9.4% completed, time steps left  5218
  Time to finish   5m 33s,    9.4% completed, time steps left  5217
  Time to finish   5m 33s,    9.4% completed, time steps left  5216
  Time to finish   5m 33s,    9.5% completed, time steps left  5215
  Time to finish   5m 33s,    9.5% completed, time steps left  5214
  Time to finish   5m 33s,    9.5% completed, time steps left  5213
  Time to finish   5m 33s,    9.5% completed, time steps left  5212
  Time to finish   5m 33s,    9.5% completed, time steps left  5211
  Time to finish   5m 33s,    9.5% completed, time steps left  5210
  Time to finish   5m 33s,    9.6% completed, time steps left  5209
  Time to finish   5m 33s,    9.6% completed, time steps left  5208
  Time to finish   5m 32s,    9.6% completed, time steps left  5207
  Time to finish   5m 32s,    9.6% completed, time steps left  5206
  Time to finish   5m 32s,    9.6% completed, time steps left  5205
  Time to finish   5m 32s,    9.7% completed, time steps left  5204
  Time to finish   5m 32s,    9.7% completed, time steps left  5203
  Time to finish   5m 32s,    9.7% completed, time steps left  5202
  Time to finish   5m 32s,    9.7% completed, time steps left  5201
  Time to finish   5m 32s,    9.7% completed, time steps left  5200
  Time to finish   5m 32s,    9.7% completed, time steps left  5199
  Time to finish   5m 32s,    9.8% completed, time steps left  5198
  Time to finish   5m 32s,    9.8% completed, time steps left  5197
  Time to finish   5m 32s,    9.8% completed, time steps left  5196
  Time to finish   5m 32s,    9.8% completed, time steps left  5195
  Time to finish   5m 31s,    9.8% completed, time steps left  5194
  Time to finish   5m 31s,    9.8% completed, time steps left  5193
  Time to finish   5m 31s,    9.9% completed, time steps left  5192
  Time to finish   5m 31s,    9.9% completed, time steps left  5191
  Time to finish   5m 31s,    9.9% completed, time steps left  5190
  Time to finish   5m 31s,    9.9% completed, time steps left  5189
  Time to finish   5m 31s,    9.9% completed, time steps left  5188
  Time to finish   5m 31s,    9.9% completed, time steps left  5187
  Time to finish   5m 31s,   10.0% completed, time steps left  5186
  Time to finish   5m 31s,   10.0% completed, time steps left  5185
  Time to finish   5m 31s,   10.0% completed, time steps left  5184
  Time to finish   5m 31s,   10.0% completed, time steps left  5183
  Time to finish   5m 31s,   10.0% completed, time steps left  5182
  Time to finish   5m 31s,   10.1% completed, time steps left  5181
  Time to finish   5m 31s,   10.1% completed, time steps left  5180
  Time to finish   5m 30s,   10.1% completed, time steps left  5179
  Time to finish   5m 30s,   10.1% completed, time steps left  5178
  Time to finish   5m 30s,   10.1% completed, time steps left  5177
  Time to finish   5m 30s,   10.1% completed, time steps left  5176
  Time to finish   5m 30s,   10.2% completed, time steps left  5175
  Time to finish   5m 30s,   10.2% completed, time steps left  5174
  Time to finish   5m 30s,   10.2% completed, time steps left  5173
  Time to finish   5m 30s,   10.2% completed, time steps left  5172
  Time to finish   5m 30s,   10.2% completed, time steps left  5171
  Time to finish   5m 30s,   10.2% completed, time steps left  5170
  Time to finish   5m 30s,   10.3% completed, time steps left  5169
  Time to finish   5m 30s,   10.3% completed, time steps left  5168
  Time to finish   5m 30s,   10.3% completed, time steps left  5167
  Time to finish   5m 30s,   10.3% completed, time steps left  5166
  Time to finish   5m 30s,   10.3% completed, time steps left  5165
  Time to finish   5m 29s,   10.3% completed, time steps left  5164
  Time to finish   5m 29s,   10.4% completed, time steps left  5163
  Time to finish   5m 29s,   10.4% completed, time steps left  5162
  Time to finish   5m 29s,   10.4% completed, time steps left  5161
  Time to finish   5m 29s,   10.4% completed, time steps left  5160
  Time to finish   5m 29s,   10.4% completed, time steps left  5159
  Time to finish   5m 29s,   10.5% completed, time steps left  5158
  Time to finish   5m 29s,   10.5% completed, time steps left  5157
  Time to finish   5m 29s,   10.5% completed, time steps left  5156
  Time to finish   5m 29s,   10.5% completed, time steps left  5155
  Time to finish   5m 29s,   10.5% completed, time steps left  5154
  Time to finish   5m 29s,   10.5% completed, time steps left  5153
  Time to finish   5m 29s,   10.6% completed, time steps left  5152
  Time to finish   5m 29s,   10.6% completed, time steps left  5151
  Time to finish   5m 29s,   10.6% completed, time steps left  5150
  Time to finish   5m 29s,   10.6% completed, time steps left  5149
  Time to finish   5m 29s,   10.6% completed, time steps left  5148
  Time to finish   5m 29s,   10.6% completed, time steps left  5147
  Time to finish   5m 29s,   10.7% completed, time steps left  5146
  Time to finish   5m 28s,   10.7% completed, time steps left  5145
  Time to finish   5m 28s,   10.7% completed, time steps left  5144
  Time to finish   5m 28s,   10.7% completed, time steps left  5143
  Time to finish   5m 28s,   10.7% completed, time steps left  5142
  Time to finish   5m 28s,   10.7% completed, time steps left  5141
  Time to finish   5m 28s,   10.8% completed, time steps left  5140
  Time to finish   5m 28s,   10.8% completed, time steps left  5139
  Time to finish   5m 28s,   10.8% completed, time steps left  5138
  Time to finish   5m 28s,   10.8% completed, time steps left  5137
  Time to finish   5m 28s,   10.8% completed, time steps left  5136
  Time to finish   5m 28s,   10.9% completed, time steps left  5135
  Time to finish   5m 28s,   10.9% completed, time steps left  5134
  Time to finish   5m 28s,   10.9% completed, time steps left  5133
  Time to finish   5m 28s,   10.9% completed, time steps left  5132
  Time to finish   5m 27s,   10.9% completed, time steps left  5131
  Time to finish   5m 27s,   10.9% completed, time steps left  5130
  Time to finish   5m 27s,   11.0% completed, time steps left  5129
  Time to finish   5m 27s,   11.0% completed, time steps left  5128
  Time to finish   5m 27s,   11.0% completed, time steps left  5127
  Time to finish   5m 27s,   11.0% completed, time steps left  5126
  Time to finish   5m 27s,   11.0% completed, time steps left  5125
  Time to finish   5m 27s,   11.0% completed, time steps left  5124
  Time to finish   5m 27s,   11.1% completed, time steps left  5123
  Time to finish   5m 27s,   11.1% completed, time steps left  5122
  Time to finish   5m 27s,   11.1% completed, time steps left  5121
  Time to finish   5m 27s,   11.1% completed, time steps left  5120
  Time to finish   5m 27s,   11.1% completed, time steps left  5119
  Time to finish   5m 26s,   11.1% completed, time steps left  5118
  Time to finish   5m 26s,   11.2% completed, time steps left  5117
  Time to finish   5m 26s,   11.2% completed, time steps left  5116
  Time to finish   5m 26s,   11.2% completed, time steps left  5115
  Time to finish   5m 26s,   11.2% completed, time steps left  5114
  Time to finish   5m 26s,   11.2% completed, time steps left  5113
  Time to finish   5m 26s,   11.2% completed, time steps left  5112
  Time to finish   5m 26s,   11.3% completed, time steps left  5111
  Time to finish   5m 26s,   11.3% completed, time steps left  5110
  Time to finish   5m 26s,   11.3% completed, time steps left  5109
  Time to finish   5m 26s,   11.3% completed, time steps left  5108
  Time to finish   5m 26s,   11.3% completed, time steps left  5107
  Time to finish   5m 26s,   11.4% completed, time steps left  5106
  Time to finish   5m 26s,   11.4% completed, time steps left  5105
  Time to finish   5m 25s,   11.4% completed, time steps left  5104
  Time to finish   5m 25s,   11.4% completed, time steps left  5103
  Time to finish   5m 25s,   11.4% completed, time steps left  5102
  Time to finish   5m 25s,   11.4% completed, time steps left  5101
  Time to finish   5m 25s,   11.5% completed, time steps left  5100
  Time to finish   5m 25s,   11.5% completed, time steps left  5099
  Time to finish   5m 25s,   11.5% completed, time steps left  5098
  Time to finish   5m 25s,   11.5% completed, time steps left  5097
  Time to finish   5m 25s,   11.5% completed, time steps left  5096
  Time to finish   5m 25s,   11.5% completed, time steps left  5095
  Time to finish   5m 25s,   11.6% completed, time steps left  5094
  Time to finish   5m 25s,   11.6% completed, time steps left  5093
  Time to finish   5m 25s,   11.6% completed, time steps left  5092
  Time to finish   5m 25s,   11.6% completed, time steps left  5091
  Time to finish   5m 25s,   11.6% completed, time steps left  5090
  Time to finish   5m 25s,   11.6% completed, time steps left  5089
  Time to finish   5m 24s,   11.7% completed, time steps left  5088
  Time to finish   5m 24s,   11.7% completed, time steps left  5087
  Time to finish   5m 24s,   11.7% completed, time steps left  5086
  Time to finish   5m 24s,   11.7% completed, time steps left  5085
  Time to finish   5m 24s,   11.7% completed, time steps left  5084
  Time to finish   5m 24s,   11.8% completed, time steps left  5083
  Time to finish   5m 24s,   11.8% completed, time steps left  5082
  Time to finish   5m 24s,   11.8% completed, time steps left  5081
  Time to finish   5m 24s,   11.8% completed, time steps left  5080
  Time to finish   5m 24s,   11.8% completed, time steps left  5079
  Time to finish   5m 24s,   11.8% completed, time steps left  5078
  Time to finish   5m 24s,   11.9% completed, time steps left  5077
  Time to finish   5m 24s,   11.9% completed, time steps left  5076
  Time to finish   5m 24s,   11.9% completed, time steps left  5075
  Time to finish   5m 24s,   11.9% completed, time steps left  5074
  Time to finish   5m 24s,   11.9% completed, time steps left  5073
  Time to finish   5m 24s,   11.9% completed, time steps left  5072
  Time to finish   5m 24s,   12.0% completed, time steps left  5071
  Time to finish   5m 24s,   12.0% completed, time steps left  5070
  Time to finish   5m 24s,   12.0% completed, time steps left  5069
  Time to finish   5m 24s,   12.0% completed, time steps left  5068
  Time to finish   5m 24s,   12.0% completed, time steps left  5067
  Time to finish   5m 24s,   12.0% completed, time steps left  5066
  Time to finish   5m 23s,   12.1% completed, time steps left  5065
  Time to finish   5m 23s,   12.1% completed, time steps left  5064
  Time to finish   5m 23s,   12.1% completed, time steps left  5063
  Time to finish   5m 23s,   12.1% completed, time steps left  5062
  Time to finish   5m 23s,   12.1% completed, time steps left  5061
  Time to finish   5m 23s,   12.2% completed, time steps left  5060
  Time to finish   5m 23s,   12.2% completed, time steps left  5059
  Time to finish   5m 23s,   12.2% completed, time steps left  5058
  Time to finish   5m 23s,   12.2% completed, time steps left  5057
  Time to finish   5m 23s,   12.2% completed, time steps left  5056
  Time to finish   5m 23s,   12.2% completed, time steps left  5055
  Time to finish   5m 23s,   12.3% completed, time steps left  5054
  Time to finish   5m 23s,   12.3% completed, time steps left  5053
  Time to finish   5m 23s,   12.3% completed, time steps left  5052
  Time to finish   5m 23s,   12.3% completed, time steps left  5051
  Time to finish   5m 22s,   12.3% completed, time steps left  5050
  Time to finish   5m 22s,   12.3% completed, time steps left  5049
  Time to finish   5m 22s,   12.4% completed, time steps left  5048
  Time to finish   5m 22s,   12.4% completed, time steps left  5047
  Time to finish   5m 22s,   12.4% completed, time steps left  5046
  Time to finish   5m 22s,   12.4% completed, time steps left  5045
  Time to finish   5m 22s,   12.4% completed, time steps left  5044
  Time to finish   5m 22s,   12.4% completed, time steps left  5043
  Time to finish   5m 22s,   12.5% completed, time steps left  5042
  Time to finish   5m 22s,   12.5% completed, time steps left  5041
  Time to finish   5m 22s,   12.5% completed, time steps left  5040
  Time to finish   5m 22s,   12.5% completed, time steps left  5039
  Time to finish   5m 22s,   12.5% completed, time steps left  5038
  Time to finish   5m 22s,   12.6% completed, time steps left  5037
  Time to finish   5m 22s,   12.6% completed, time steps left  5036
  Time to finish   5m 22s,   12.6% completed, time steps left  5035
  Time to finish   5m 21s,   12.6% completed, time steps left  5034
  Time to finish   5m 21s,   12.6% completed, time steps left  5033
  Time to finish   5m 21s,   12.6% completed, time steps left  5032
  Time to finish   5m 21s,   12.7% completed, time steps left  5031
  Time to finish   5m 21s,   12.7% completed, time steps left  5030
  Time to finish   5m 21s,   12.7% completed, time steps left  5029
  Time to finish   5m 21s,   12.7% completed, time steps left  5028
  Time to finish   5m 21s,   12.7% completed, time steps left  5027
  Time to finish   5m 21s,   12.7% completed, time steps left  5026
  Time to finish   5m 21s,   12.8% completed, time steps left  5025
  Time to finish   5m 21s,   12.8% completed, time steps left  5024
  Time to finish   5m 21s,   12.8% completed, time steps left  5023
  Time to finish   5m 21s,   12.8% completed, time steps left  5022
  Time to finish   5m 21s,   12.8% completed, time steps left  5021
  Time to finish   5m 20s,   12.8% completed, time steps left  5020
  Time to finish   5m 20s,   12.9% completed, time steps left  5019
  Time to finish   5m 20s,   12.9% completed, time steps left  5018
  Time to finish   5m 20s,   12.9% completed, time steps left  5017
  Time to finish   5m 20s,   12.9% completed, time steps left  5016
  Time to finish   5m 20s,   12.9% completed, time steps left  5015
  Time to finish   5m 20s,   13.0% completed, time steps left  5014
  Time to finish   5m 20s,   13.0% completed, time steps left  5013
  Time to finish   5m 20s,   13.0% completed, time steps left  5012
  Time to finish   5m 20s,   13.0% completed, time steps left  5011
  Time to finish   5m 20s,   13.0% completed, time steps left  5010
  Time to finish   5m 20s,   13.0% completed, time steps left  5009
  Time to finish   5m 20s,   13.1% completed, time steps left  5008
  Time to finish   5m 20s,   13.1% completed, time steps left  5007
  Time to finish   5m 20s,   13.1% completed, time steps left  5006
  Time to finish   5m 20s,   13.1% completed, time steps left  5005
  Time to finish   5m 19s,   13.1% completed, time steps left  5004
  Time to finish   5m 19s,   13.1% completed, time steps left  5003
  Time to finish   5m 19s,   13.2% completed, time steps left  5002
  Time to finish   5m 19s,   13.2% completed, time steps left  5001
  Time to finish   5m 19s,   13.2% completed, time steps left  5000
  Time to finish   5m 19s,   13.2% completed, time steps left  4999
  Time to finish   5m 19s,   13.2% completed, time steps left  4998
  Time to finish   5m 19s,   13.2% completed, time steps left  4997
  Time to finish   5m 19s,   13.3% completed, time steps left  4996
  Time to finish   5m 19s,   13.3% completed, time steps left  4995
  Time to finish   5m 19s,   13.3% completed, time steps left  4994
  Time to finish   5m 19s,   13.3% completed, time steps left  4993
  Time to finish   5m 19s,   13.3% completed, time steps left  4992
  Time to finish   5m 19s,   13.4% completed, time steps left  4991
  Time to finish   5m 19s,   13.4% completed, time steps left  4990
  Time to finish   5m 19s,   13.4% completed, time steps left  4989
  Time to finish   5m 18s,   13.4% completed, time steps left  4988
  Time to finish   5m 18s,   13.4% completed, time steps left  4987
  Time to finish   5m 18s,   13.4% completed, time steps left  4986
  Time to finish   5m 18s,   13.5% completed, time steps left  4985
  Time to finish   5m 18s,   13.5% completed, time steps left  4984
  Time to finish   5m 18s,   13.5% completed, time steps left  4983
  Time to finish   5m 18s,   13.5% completed, time steps left  4982
  Time to finish   5m 18s,   13.5% completed, time steps left  4981
  Time to finish   5m 18s,   13.5% completed, time steps left  4980
  Time to finish   5m 18s,   13.6% completed, time steps left  4979
  Time to finish   5m 18s,   13.6% completed, time steps left  4978
  Time to finish   5m 18s,   13.6% completed, time steps left  4977
  Time to finish   5m 18s,   13.6% completed, time steps left  4976
  Time to finish   5m 18s,   13.6% completed, time steps left  4975
  Time to finish   5m 18s,   13.6% completed, time steps left  4974
  Time to finish   5m 18s,   13.7% completed, time steps left  4973
  Time to finish   5m 18s,   13.7% completed, time steps left  4972
  Time to finish   5m 18s,   13.7% completed, time steps left  4971
  Time to finish   5m 18s,   13.7% completed, time steps left  4970
  Time to finish   5m 17s,   13.7% completed, time steps left  4969
  Time to finish   5m 17s,   13.8% completed, time steps left  4968
  Time to finish   5m 17s,   13.8% completed, time steps left  4967
  Time to finish   5m 17s,   13.8% completed, time steps left  4966
  Time to finish   5m 17s,   13.8% completed, time steps left  4965
  Time to finish   5m 17s,   13.8% completed, time steps left  4964
  Time to finish   5m 17s,   13.8% completed, time steps left  4963
  Time to finish   5m 17s,   13.9% completed, time steps left  4962
  Time to finish   5m 17s,   13.9% completed, time steps left  4961
  Time to finish   5m 17s,   13.9% completed, time steps left  4960
  Time to finish   5m 17s,   13.9% completed, time steps left  4959
  Time to finish   5m 17s,   13.9% completed, time steps left  4958
  Time to finish   5m 17s,   13.9% completed, time steps left  4957
  Time to finish   5m 17s,   14.0% completed, time steps left  4956
  Time to finish   5m 17s,   14.0% completed, time steps left  4955
  Time to finish   5m 16s,   14.0% completed, time steps left  4954
  Time to finish   5m 16s,   14.0% completed, time steps left  4953
  Time to finish   5m 16s,   14.0% completed, time steps left  4952
  Time to finish   5m 16s,   14.0% completed, time steps left  4951
  Time to finish   5m 16s,   14.1% completed, time steps left  4950
  Time to finish   5m 16s,   14.1% completed, time steps left  4949
  Time to finish   5m 16s,   14.1% completed, time steps left  4948
  Time to finish   5m 16s,   14.1% completed, time steps left  4947
  Time to finish   5m 16s,   14.1% completed, time steps left  4946
  Time to finish   5m 16s,   14.1% completed, time steps left  4945
  Time to finish   5m 16s,   14.2% completed, time steps left  4944
  Time to finish   5m 16s,   14.2% completed, time steps left  4943
  Time to finish   5m 16s,   14.2% completed, time steps left  4942
  Time to finish   5m 16s,   14.2% completed, time steps left  4941
  Time to finish   5m 16s,   14.2% completed, time steps left  4940
  Time to finish   5m 16s,   14.3% completed, time steps left  4939
  Time to finish   5m 15s,   14.3% completed, time steps left  4938
  Time to finish   5m 15s,   14.3% completed, time steps left  4937
  Time to finish   5m 15s,   14.3% completed, time steps left  4936
  Time to finish   5m 15s,   14.3% completed, time steps left  4935
  Time to finish   5m 15s,   14.3% completed, time steps left  4934
  Time to finish   5m 15s,   14.4% completed, time steps left  4933
  Time to finish   5m 15s,   14.4% completed, time steps left  4932
  Time to finish   5m 15s,   14.4% completed, time steps left  4931
  Time to finish   5m 15s,   14.4% completed, time steps left  4930
  Time to finish   5m 15s,   14.4% completed, time steps left  4929
  Time to finish   5m 15s,   14.4% completed, time steps left  4928
  Time to finish   5m 15s,   14.5% completed, time steps left  4927
  Time to finish   5m 15s,   14.5% completed, time steps left  4926
  Time to finish   5m 15s,   14.5% completed, time steps left  4925
  Time to finish   5m 15s,   14.5% completed, time steps left  4924
  Time to finish   5m 14s,   14.5% completed, time steps left  4923
  Time to finish   5m 14s,   14.5% completed, time steps left  4922
  Time to finish   5m 14s,   14.6% completed, time steps left  4921
  Time to finish   5m 15s,   14.6% completed, time steps left  4920
  Time to finish   5m 15s,   14.6% completed, time steps left  4919
  Time to finish   5m 15s,   14.6% completed, time steps left  4918
  Time to finish   5m 15s,   14.6% completed, time steps left  4917
  Time to finish   5m 15s,   14.7% completed, time steps left  4916
  Time to finish   5m 15s,   14.7% completed, time steps left  4915
  Time to finish   5m 15s,   14.7% completed, time steps left  4914
  Time to finish   5m 15s,   14.7% completed, time steps left  4913
  Time to finish   5m 15s,   14.7% completed, time steps left  4912
  Time to finish   5m 15s,   14.7% completed, time steps left  4911
  Time to finish   5m 15s,   14.8% completed, time steps left  4910
  Time to finish   5m 14s,   14.8% completed, time steps left  4909
  Time to finish   5m 14s,   14.8% completed, time steps left  4908
  Time to finish   5m 14s,   14.8% completed, time steps left  4907
  Time to finish   5m 14s,   14.8% completed, time steps left  4906
  Time to finish   5m 14s,   14.8% completed, time steps left  4905
  Time to finish   5m 14s,   14.9% completed, time steps left  4904
  Time to finish   5m 14s,   14.9% completed, time steps left  4903
  Time to finish   5m 14s,   14.9% completed, time steps left  4902
  Time to finish   5m 14s,   14.9% completed, time steps left  4901
  Time to finish   5m 14s,   14.9% completed, time steps left  4900
  Time to finish   5m 14s,   14.9% completed, time steps left  4899
  Time to finish   5m 14s,   15.0% completed, time steps left  4898
  Time to finish   5m 14s,   15.0% completed, time steps left  4897
  Time to finish   5m 14s,   15.0% completed, time steps left  4896
  Time to finish   5m 13s,   15.0% completed, time steps left  4895
  Time to finish   5m 13s,   15.0% completed, time steps left  4894
  Time to finish   5m 13s,   15.1% completed, time steps left  4893
  Time to finish   5m 13s,   15.1% completed, time steps left  4892
  Time to finish   5m 13s,   15.1% completed, time steps left  4891
  Time to finish   5m 13s,   15.1% completed, time steps left  4890
  Time to finish   5m 13s,   15.1% completed, time steps left  4889
  Time to finish   5m 13s,   15.1% completed, time steps left  4888
  Time to finish   5m 13s,   15.2% completed, time steps left  4887
  Time to finish   5m 13s,   15.2% completed, time steps left  4886
  Time to finish   5m 13s,   15.2% completed, time steps left  4885
  Time to finish   5m 13s,   15.2% completed, time steps left  4884
  Time to finish   5m 13s,   15.2% completed, time steps left  4883
  Time to finish   5m 13s,   15.2% completed, time steps left  4882
  Time to finish   5m 12s,   15.3% completed, time steps left  4881
  Time to finish   5m 12s,   15.3% completed, time steps left  4880
  Time to finish   5m 12s,   15.3% completed, time steps left  4879
  Time to finish   5m 12s,   15.3% completed, time steps left  4878
  Time to finish   5m 12s,   15.3% completed, time steps left  4877
  Time to finish   5m 12s,   15.3% completed, time steps left  4876
  Time to finish   5m 12s,   15.4% completed, time steps left  4875
  Time to finish   5m 12s,   15.4% completed, time steps left  4874
  Time to finish   5m 12s,   15.4% completed, time steps left  4873
  Time to finish   5m 12s,   15.4% completed, time steps left  4872
  Time to finish   5m 12s,   15.4% completed, time steps left  4871
  Time to finish   5m 12s,   15.5% completed, time steps left  4870
  Time to finish   5m 12s,   15.5% completed, time steps left  4869
  Time to finish   5m 12s,   15.5% completed, time steps left  4868
  Time to finish   5m 12s,   15.5% completed, time steps left  4867
  Time to finish   5m 12s,   15.5% completed, time steps left  4866
  Time to finish   5m 12s,   15.5% completed, time steps left  4865
  Time to finish   5m 11s,   15.6% completed, time steps left  4864
  Time to finish   5m 11s,   15.6% completed, time steps left  4863
  Time to finish   5m 11s,   15.6% completed, time steps left  4862
  Time to finish   5m 11s,   15.6% completed, time steps left  4861
  Time to finish   5m 11s,   15.6% completed, time steps left  4860
  Time to finish   5m 11s,   15.6% completed, time steps left  4859
  Time to finish   5m 11s,   15.7% completed, time steps left  4858
  Time to finish   5m 11s,   15.7% completed, time steps left  4857
  Time to finish   5m 11s,   15.7% completed, time steps left  4856
  Time to finish   5m 11s,   15.7% completed, time steps left  4855
  Time to finish   5m 11s,   15.7% completed, time steps left  4854
  Time to finish   5m 11s,   15.7% completed, time steps left  4853
  Time to finish   5m 11s,   15.8% completed, time steps left  4852
  Time to finish   5m 11s,   15.8% completed, time steps left  4851
  Time to finish   5m 10s,   15.8% completed, time steps left  4850
  Time to finish   5m 10s,   15.8% completed, time steps left  4849
  Time to finish   5m 10s,   15.8% completed, time steps left  4848
  Time to finish   5m 10s,   15.9% completed, time steps left  4847
  Time to finish   5m 10s,   15.9% completed, time steps left  4846
  Time to finish   5m 10s,   15.9% completed, time steps left  4845
  Time to finish   5m 10s,   15.9% completed, time steps left  4844
  Time to finish   5m 10s,   15.9% completed, time steps left  4843
  Time to finish   5m 10s,   15.9% completed, time steps left  4842
  Time to finish   5m 10s,   16.0% completed, time steps left  4841
  Time to finish   5m 10s,   16.0% completed, time steps left  4840
  Time to finish   5m 10s,   16.0% completed, time steps left  4839
  Time to finish   5m 10s,   16.0% completed, time steps left  4838
  Time to finish   5m 10s,   16.0% completed, time steps left  4837
  Time to finish   5m 10s,   16.0% completed, time steps left  4836
  Time to finish   5m 10s,   16.1% completed, time steps left  4835
  Time to finish   5m  9s,   16.1% completed, time steps left  4834
  Time to finish   5m  9s,   16.1% completed, time steps left  4833
  Time to finish   5m  9s,   16.1% completed, time steps left  4832
  Time to finish   5m  9s,   16.1% completed, time steps left  4831
  Time to finish   5m  9s,   16.1% completed, time steps left  4830
  Time to finish   5m  9s,   16.2% completed, time steps left  4829
  Time to finish   5m  9s,   16.2% completed, time steps left  4828
  Time to finish   5m  9s,   16.2% completed, time steps left  4827
  Time to finish   5m  9s,   16.2% completed, time steps left  4826
  Time to finish   5m  9s,   16.2% completed, time steps left  4825
  Time to finish   5m  9s,   16.2% completed, time steps left  4824
  Time to finish   5m  9s,   16.3% completed, time steps left  4823
  Time to finish   5m  9s,   16.3% completed, time steps left  4822
  Time to finish   5m  9s,   16.3% completed, time steps left  4821
  Time to finish   5m  8s,   16.3% completed, time steps left  4820
  Time to finish   5m  8s,   16.3% completed, time steps left  4819
  Time to finish   5m  8s,   16.4% completed, time steps left  4818
  Time to finish   5m  8s,   16.4% completed, time steps left  4817
  Time to finish   5m  8s,   16.4% completed, time steps left  4816
  Time to finish   5m  8s,   16.4% completed, time steps left  4815
  Time to finish   5m  8s,   16.4% completed, time steps left  4814
  Time to finish   5m  8s,   16.4% completed, time steps left  4813
  Time to finish   5m  8s,   16.5% completed, time steps left  4812
  Time to finish   5m  8s,   16.5% completed, time steps left  4811
  Time to finish   5m  8s,   16.5% completed, time steps left  4810
  Time to finish   5m  8s,   16.5% completed, time steps left  4809
  Time to finish   5m  8s,   16.5% completed, time steps left  4808
  Time to finish   5m  8s,   16.5% completed, time steps left  4807
  Time to finish   5m  7s,   16.6% completed, time steps left  4806
  Time to finish   5m  7s,   16.6% completed, time steps left  4805
  Time to finish   5m  7s,   16.6% completed, time steps left  4804
  Time to finish   5m  7s,   16.6% completed, time steps left  4803
  Time to finish   5m  7s,   16.6% completed, time steps left  4802
  Time to finish   5m  7s,   16.6% completed, time steps left  4801
  Time to finish   5m  7s,   16.7% completed, time steps left  4800
  Time to finish   5m  7s,   16.7% completed, time steps left  4799
  Time to finish   5m  7s,   16.7% completed, time steps left  4798
  Time to finish   5m  7s,   16.7% completed, time steps left  4797
  Time to finish   5m  7s,   16.7% completed, time steps left  4796
  Time to finish   5m  7s,   16.8% completed, time steps left  4795
  Time to finish   5m  7s,   16.8% completed, time steps left  4794
  Time to finish   5m  7s,   16.8% completed, time steps left  4793
  Time to finish   5m  7s,   16.8% completed, time steps left  4792
  Time to finish   5m  7s,   16.8% completed, time steps left  4791
  Time to finish   5m  6s,   16.8% completed, time steps left  4790
  Time to finish   5m  6s,   16.9% completed, time steps left  4789
  Time to finish   5m  6s,   16.9% completed, time steps left  4788
  Time to finish   5m  6s,   16.9% completed, time steps left  4787
  Time to finish   5m  6s,   16.9% completed, time steps left  4786
  Time to finish   5m  6s,   16.9% completed, time steps left  4785
  Time to finish   5m  6s,   16.9% completed, time steps left  4784
  Time to finish   5m  6s,   17.0% completed, time steps left  4783
  Time to finish   5m  6s,   17.0% completed, time steps left  4782
  Time to finish   5m  6s,   17.0% completed, time steps left  4781
  Time to finish   5m  6s,   17.0% completed, time steps left  4780
  Time to finish   5m  6s,   17.0% completed, time steps left  4779
  Time to finish   5m  6s,   17.0% completed, time steps left  4778
  Time to finish   5m  6s,   17.1% completed, time steps left  4777
  Time to finish   5m  6s,   17.1% completed, time steps left  4776
  Time to finish   5m  5s,   17.1% completed, time steps left  4775
  Time to finish   5m  5s,   17.1% completed, time steps left  4774
  Time to finish   5m  5s,   17.1% completed, time steps left  4773
  Time to finish   5m  5s,   17.2% completed, time steps left  4772
  Time to finish   5m  5s,   17.2% completed, time steps left  4771
  Time to finish   5m  5s,   17.2% completed, time steps left  4770
  Time to finish   5m  5s,   17.2% completed, time steps left  4769
  Time to finish   5m  5s,   17.2% completed, time steps left  4768
  Time to finish   5m  5s,   17.2% completed, time steps left  4767
  Time to finish   5m  5s,   17.3% completed, time steps left  4766
  Time to finish   5m  5s,   17.3% completed, time steps left  4765
  Time to finish   5m  5s,   17.3% completed, time steps left  4764
  Time to finish   5m  5s,   17.3% completed, time steps left  4763
  Time to finish   5m  5s,   17.3% completed, time steps left  4762
  Time to finish   5m  5s,   17.3% completed, time steps left  4761
  Time to finish   5m  4s,   17.4% completed, time steps left  4760
  Time to finish   5m  4s,   17.4% completed, time steps left  4759
  Time to finish   5m  4s,   17.4% completed, time steps left  4758
  Time to finish   5m  4s,   17.4% completed, time steps left  4757
  Time to finish   5m  4s,   17.4% completed, time steps left  4756
  Time to finish   5m  4s,   17.4% completed, time steps left  4755
  Time to finish   5m  4s,   17.5% completed, time steps left  4754
  Time to finish   5m  4s,   17.5% completed, time steps left  4753
  Time to finish   5m  4s,   17.5% completed, time steps left  4752
  Time to finish   5m  4s,   17.5% completed, time steps left  4751
  Time to finish   5m  4s,   17.5% completed, time steps left  4750
  Time to finish   5m  4s,   17.6% completed, time steps left  4749
  Time to finish   5m  4s,   17.6% completed, time steps left  4748
  Time to finish   5m  4s,   17.6% completed, time steps left  4747
  Time to finish   5m  4s,   17.6% completed, time steps left  4746
  Time to finish   5m  3s,   17.6% completed, time steps left  4745
  Time to finish   5m  3s,   17.6% completed, time steps left  4744
  Time to finish   5m  3s,   17.7% completed, time steps left  4743
  Time to finish   5m  3s,   17.7% completed, time steps left  4742
  Time to finish   5m  3s,   17.7% completed, time steps left  4741
  Time to finish   5m  3s,   17.7% completed, time steps left  4740
  Time to finish   5m  3s,   17.7% completed, time steps left  4739
  Time to finish   5m  3s,   17.7% completed, time steps left  4738
  Time to finish   5m  3s,   17.8% completed, time steps left  4737
  Time to finish   5m  3s,   17.8% completed, time steps left  4736
  Time to finish   5m  3s,   17.8% completed, time steps left  4735
  Time to finish   5m  3s,   17.8% completed, time steps left  4734
  Time to finish   5m  3s,   17.8% completed, time steps left  4733
  Time to finish   5m  3s,   17.8% completed, time steps left  4732
  Time to finish   5m  2s,   17.9% completed, time steps left  4731
  Time to finish   5m  2s,   17.9% completed, time steps left  4730
  Time to finish   5m  2s,   17.9% completed, time steps left  4729
  Time to finish   5m  2s,   17.9% completed, time steps left  4728
  Time to finish   5m  2s,   17.9% completed, time steps left  4727
  Time to finish   5m  2s,   18.0% completed, time steps left  4726
  Time to finish   5m  2s,   18.0% completed, time steps left  4725
  Time to finish   5m  2s,   18.0% completed, time steps left  4724
  Time to finish   5m  2s,   18.0% completed, time steps left  4723
  Time to finish   5m  2s,   18.0% completed, time steps left  4722
  Time to finish   5m  2s,   18.0% completed, time steps left  4721
  Time to finish   5m  2s,   18.1% completed, time steps left  4720
  Time to finish   5m  2s,   18.1% completed, time steps left  4719
  Time to finish   5m  2s,   18.1% completed, time steps left  4718
  Time to finish   5m  2s,   18.1% completed, time steps left  4717
  Time to finish   5m  1s,   18.1% completed, time steps left  4716
  Time to finish   5m  1s,   18.1% completed, time steps left  4715
  Time to finish   5m  1s,   18.2% completed, time steps left  4714
  Time to finish   5m  1s,   18.2% completed, time steps left  4713
  Time to finish   5m  1s,   18.2% completed, time steps left  4712
  Time to finish   5m  1s,   18.2% completed, time steps left  4711
  Time to finish   5m  1s,   18.2% completed, time steps left  4710
  Time to finish   5m  1s,   18.2% completed, time steps left  4709
  Time to finish   5m  1s,   18.3% completed, time steps left  4708
  Time to finish   5m  1s,   18.3% completed, time steps left  4707
  Time to finish   5m  1s,   18.3% completed, time steps left  4706
  Time to finish   5m  1s,   18.3% completed, time steps left  4705
  Time to finish   5m  1s,   18.3% completed, time steps left  4704
  Time to finish   5m  1s,   18.4% completed, time steps left  4703
  Time to finish   5m  1s,   18.4% completed, time steps left  4702
  Time to finish   5m  0s,   18.4% completed, time steps left  4701
  Time to finish   5m  0s,   18.4% completed, time steps left  4700
  Time to finish   5m  0s,   18.4% completed, time steps left  4699
  Time to finish   5m  0s,   18.4% completed, time steps left  4698
  Time to finish   5m  0s,   18.5% completed, time steps left  4697
  Time to finish   5m  0s,   18.5% completed, time steps left  4696
  Time to finish   5m  0s,   18.5% completed, time steps left  4695
  Time to finish   5m  0s,   18.5% completed, time steps left  4694
  Time to finish   5m  0s,   18.5% completed, time steps left  4693
  Time to finish   5m  0s,   18.5% completed, time steps left  4692
  Time to finish   5m  0s,   18.6% completed, time steps left  4691
  Time to finish   5m  0s,   18.6% completed, time steps left  4690
  Time to finish   5m  0s,   18.6% completed, time steps left  4689
  Time to finish   5m  0s,   18.6% completed, time steps left  4688
  Time to finish   5m  0s,   18.6% completed, time steps left  4687
  Time to finish   4m 59s,   18.6% completed, time steps left  4686
  Time to finish   4m 59s,   18.7% completed, time steps left  4685
  Time to finish   4m 59s,   18.7% completed, time steps left  4684
  Time to finish   4m 59s,   18.7% completed, time steps left  4683
  Time to finish   4m 59s,   18.7% completed, time steps left  4682
  Time to finish   4m 59s,   18.7% completed, time steps left  4681
  Time to finish   4m 59s,   18.8% completed, time steps left  4680
  Time to finish   4m 59s,   18.8% completed, time steps left  4679
  Time to finish   4m 59s,   18.8% completed, time steps left  4678
  Time to finish   4m 59s,   18.8% completed, time steps left  4677
  Time to finish   4m 59s,   18.8% completed, time steps left  4676
  Time to finish   4m 59s,   18.8% completed, time steps left  4675
  Time to finish   4m 59s,   18.9% completed, time steps left  4674
  Time to finish   4m 59s,   18.9% completed, time steps left  4673
  Time to finish   4m 59s,   18.9% completed, time steps left  4672
  Time to finish   4m 59s,   18.9% completed, time steps left  4671
  Time to finish   4m 59s,   18.9% completed, time steps left  4670
  Time to finish   4m 59s,   18.9% completed, time steps left  4669
  Time to finish   4m 59s,   19.0% completed, time steps left  4668
  Time to finish   4m 58s,   19.0% completed, time steps left  4667
  Time to finish   4m 58s,   19.0% completed, time steps left  4666
  Time to finish   4m 58s,   19.0% completed, time steps left  4665
  Time to finish   4m 58s,   19.0% completed, time steps left  4664
  Time to finish   4m 58s,   19.0% completed, time steps left  4663
  Time to finish   4m 58s,   19.1% completed, time steps left  4662
  Time to finish   4m 58s,   19.1% completed, time steps left  4661
  Time to finish   4m 58s,   19.1% completed, time steps left  4660
  Time to finish   4m 58s,   19.1% completed, time steps left  4659
  Time to finish   4m 58s,   19.1% completed, time steps left  4658
  Time to finish   4m 58s,   19.1% completed, time steps left  4657
  Time to finish   4m 58s,   19.2% completed, time steps left  4656
  Time to finish   4m 58s,   19.2% completed, time steps left  4655
  Time to finish   4m 58s,   19.2% completed, time steps left  4654
  Time to finish   4m 58s,   19.2% completed, time steps left  4653
  Time to finish   4m 57s,   19.2% completed, time steps left  4652
  Time to finish   4m 57s,   19.3% completed, time steps left  4651
  Time to finish   4m 57s,   19.3% completed, time steps left  4650
  Time to finish   4m 57s,   19.3% completed, time steps left  4649
  Time to finish   4m 57s,   19.3% completed, time steps left  4648
  Time to finish   4m 57s,   19.3% completed, time steps left  4647
  Time to finish   4m 57s,   19.3% completed, time steps left  4646
  Time to finish   4m 57s,   19.4% completed, time steps left  4645
  Time to finish   4m 57s,   19.4% completed, time steps left  4644
  Time to finish   4m 57s,   19.4% completed, time steps left  4643
  Time to finish   4m 57s,   19.4% completed, time steps left  4642
  Time to finish   4m 57s,   19.4% completed, time steps left  4641
  Time to finish   4m 57s,   19.4% completed, time steps left  4640
  Time to finish   4m 57s,   19.5% completed, time steps left  4639
  Time to finish   4m 57s,   19.5% completed, time steps left  4638
  Time to finish   4m 56s,   19.5% completed, time steps left  4637
  Time to finish   4m 56s,   19.5% completed, time steps left  4636
  Time to finish   4m 56s,   19.5% completed, time steps left  4635
  Time to finish   4m 56s,   19.5% completed, time steps left  4634
  Time to finish   4m 56s,   19.6% completed, time steps left  4633
  Time to finish   4m 56s,   19.6% completed, time steps left  4632
  Time to finish   4m 56s,   19.6% completed, time steps left  4631
  Time to finish   4m 56s,   19.6% completed, time steps left  4630
  Time to finish   4m 56s,   19.6% completed, time steps left  4629
  Time to finish   4m 56s,   19.7% completed, time steps left  4628
  Time to finish   4m 56s,   19.7% completed, time steps left  4627
  Time to finish   4m 56s,   19.7% completed, time steps left  4626
  Time to finish   4m 56s,   19.7% completed, time steps left  4625
  Time to finish   4m 56s,   19.7% completed, time steps left  4624
  Time to finish   4m 55s,   19.7% completed, time steps left  4623
  Time to finish   4m 55s,   19.8% completed, time steps left  4622
  Time to finish   4m 55s,   19.8% completed, time steps left  4621
  Time to finish   4m 55s,   19.8% completed, time steps left  4620
  Time to finish   4m 55s,   19.8% completed, time steps left  4619
  Time to finish   4m 55s,   19.8% completed, time steps left  4618
  Time to finish   4m 55s,   19.8% completed, time steps left  4617
  Time to finish   4m 55s,   19.9% completed, time steps left  4616
[...]
  Time to finish  20s,   94.7% completed, time steps left  304
  Time to finish  20s,   94.7% completed, time steps left  303
  Time to finish  20s,   94.8% completed, time steps left  302
  Time to finish  20s,   94.8% completed, time steps left  301
  Time to finish  20s,   94.8% completed, time steps left  300
  Time to finish  20s,   94.8% completed, time steps left  299
  Time to finish  20s,   94.8% completed, time steps left  298
  Time to finish  20s,   94.8% completed, time steps left  297
  Time to finish  20s,   94.9% completed, time steps left  296
  Time to finish  20s,   94.9% completed, time steps left  295
  Time to finish  20s,   94.9% completed, time steps left  294
  Time to finish  20s,   94.9% completed, time steps left  293
  Time to finish  20s,   94.9% completed, time steps left  292
  Time to finish  20s,   94.9% completed, time steps left  291
  Time to finish  19s,   95.0% completed, time steps left  290
  Time to finish  19s,   95.0% completed, time steps left  289
  Time to finish  19s,   95.0% completed, time steps left  288
  Time to finish  19s,   95.0% completed, time steps left  287
  Time to finish  19s,   95.0% completed, time steps left  286
  Time to finish  19s,   95.1% completed, time steps left  285
  Time to finish  19s,   95.1% completed, time steps left  284
  Time to finish  19s,   95.1% completed, time steps left  283
  Time to finish  19s,   95.1% completed, time steps left  282
  Time to finish  19s,   95.1% completed, time steps left  281
  Time to finish  19s,   95.1% completed, time steps left  280
  Time to finish  19s,   95.2% completed, time steps left  279
  Time to finish  19s,   95.2% completed, time steps left  278
  Time to finish  19s,   95.2% completed, time steps left  277
  Time to finish  19s,   95.2% completed, time steps left  276
  Time to finish  18s,   95.2% completed, time steps left  275
  Time to finish  18s,   95.2% completed, time steps left  274
  Time to finish  18s,   95.3% completed, time steps left  273
  Time to finish  18s,   95.3% completed, time steps left  272
  Time to finish  18s,   95.3% completed, time steps left  271
  Time to finish  18s,   95.3% completed, time steps left  270
  Time to finish  18s,   95.3% completed, time steps left  269
  Time to finish  18s,   95.3% completed, time steps left  268
  Time to finish  18s,   95.4% completed, time steps left  267
  Time to finish  18s,   95.4% completed, time steps left  266
  Time to finish  18s,   95.4% completed, time steps left  265
  Time to finish  18s,   95.4% completed, time steps left  264
  Time to finish  18s,   95.4% completed, time steps left  263
  Time to finish  18s,   95.5% completed, time steps left  262
  Time to finish  18s,   95.5% completed, time steps left  261
  Time to finish  17s,   95.5% completed, time steps left  260
  Time to finish  17s,   95.5% completed, time steps left  259
  Time to finish  17s,   95.5% completed, time steps left  258
  Time to finish  17s,   95.5% completed, time steps left  257
  Time to finish  17s,   95.6% completed, time steps left  256
  Time to finish  17s,   95.6% completed, time steps left  255
  Time to finish  17s,   95.6% completed, time steps left  254
  Time to finish  17s,   95.6% completed, time steps left  253
  Time to finish  17s,   95.6% completed, time steps left  252
  Time to finish  17s,   95.6% completed, time steps left  251
  Time to finish  17s,   95.7% completed, time steps left  250
  Time to finish  17s,   95.7% completed, time steps left  249
  Time to finish  17s,   95.7% completed, time steps left  248
  Time to finish  17s,   95.7% completed, time steps left  247
  Time to finish  17s,   95.7% completed, time steps left  246
  Time to finish  16s,   95.7% completed, time steps left  245
  Time to finish  16s,   95.8% completed, time steps left  244
  Time to finish  16s,   95.8% completed, time steps left  243
  Time to finish  16s,   95.8% completed, time steps left  242
  Time to finish  16s,   95.8% completed, time steps left  241
  Time to finish  16s,   95.8% completed, time steps left  240
  Time to finish  16s,   95.9% completed, time steps left  239
  Time to finish  16s,   95.9% completed, time steps left  238
  Time to finish  16s,   95.9% completed, time steps left  237
  Time to finish  16s,   95.9% completed, time steps left  236
  Time to finish  16s,   95.9% completed, time steps left  235
  Time to finish  16s,   95.9% completed, time steps left  234
  Time to finish  16s,   96.0% completed, time steps left  233
  Time to finish  16s,   96.0% completed, time steps left  232
  Time to finish  15s,   96.0% completed, time steps left  231
  Time to finish  15s,   96.0% completed, time steps left  230
  Time to finish  15s,   96.0% completed, time steps left  229
  Time to finish  15s,   96.0% completed, time steps left  228
  Time to finish  15s,   96.1% completed, time steps left  227
  Time to finish  15s,   96.1% completed, time steps left  226
  Time to finish  15s,   96.1% completed, time steps left  225
  Time to finish  15s,   96.1% completed, time steps left  224
  Time to finish  15s,   96.1% completed, time steps left  223
  Time to finish  15s,   96.1% completed, time steps left  222
  Time to finish  15s,   96.2% completed, time steps left  221
  Time to finish  15s,   96.2% completed, time steps left  220
  Time to finish  15s,   96.2% completed, time steps left  219
  Time to finish  15s,   96.2% completed, time steps left  218
  Time to finish  15s,   96.2% completed, time steps left  217
  Time to finish  14s,   96.2% completed, time steps left  216
  Time to finish  14s,   96.3% completed, time steps left  215
  Time to finish  14s,   96.3% completed, time steps left  214
  Time to finish  14s,   96.3% completed, time steps left  213
  Time to finish  14s,   96.3% completed, time steps left  212
  Time to finish  14s,   96.3% completed, time steps left  211
  Time to finish  14s,   96.4% completed, time steps left  210
  Time to finish  14s,   96.4% completed, time steps left  209
  Time to finish  14s,   96.4% completed, time steps left  208
  Time to finish  14s,   96.4% completed, time steps left  207
  Time to finish  14s,   96.4% completed, time steps left  206
  Time to finish  14s,   96.4% completed, time steps left  205
  Time to finish  14s,   96.5% completed, time steps left  204
  Time to finish  14s,   96.5% completed, time steps left  203
  Time to finish  14s,   96.5% completed, time steps left  202
  Time to finish  13s,   96.5% completed, time steps left  201
  Time to finish  13s,   96.5% completed, time steps left  200
  Time to finish  13s,   96.5% completed, time steps left  199
  Time to finish  13s,   96.6% completed, time steps left  198
  Time to finish  13s,   96.6% completed, time steps left  197
  Time to finish  13s,   96.6% completed, time steps left  196
  Time to finish  13s,   96.6% completed, time steps left  195
  Time to finish  13s,   96.6% completed, time steps left  194
  Time to finish  13s,   96.6% completed, time steps left  193
  Time to finish  13s,   96.7% completed, time steps left  192
  Time to finish  13s,   96.7% completed, time steps left  191
  Time to finish  13s,   96.7% completed, time steps left  190
  Time to finish  13s,   96.7% completed, time steps left  189
  Time to finish  13s,   96.7% completed, time steps left  188
  Time to finish  13s,   96.8% completed, time steps left  187
  Time to finish  12s,   96.8% completed, time steps left  186
  Time to finish  12s,   96.8% completed, time steps left  185
  Time to finish  12s,   96.8% completed, time steps left  184
  Time to finish  12s,   96.8% completed, time steps left  183
  Time to finish  12s,   96.8% completed, time steps left  182
  Time to finish  12s,   96.9% completed, time steps left  181
  Time to finish  12s,   96.9% completed, time steps left  180
  Time to finish  12s,   96.9% completed, time steps left  179
  Time to finish  12s,   96.9% completed, time steps left  178
  Time to finish  12s,   96.9% completed, time steps left  177
  Time to finish  12s,   96.9% completed, time steps left  176
  Time to finish  12s,   97.0% completed, time steps left  175
  Time to finish  12s,   97.0% completed, time steps left  174
  Time to finish  12s,   97.0% completed, time steps left  173
  Time to finish  12s,   97.0% completed, time steps left  172
  Time to finish  11s,   97.0% completed, time steps left  171
  Time to finish  11s,   97.0% completed, time steps left  170
  Time to finish  11s,   97.1% completed, time steps left  169
  Time to finish  11s,   97.1% completed, time steps left  168
  Time to finish  11s,   97.1% completed, time steps left  167
  Time to finish  11s,   97.1% completed, time steps left  166
  Time to finish  11s,   97.1% completed, time steps left  165
  Time to finish  11s,   97.2% completed, time steps left  164
  Time to finish  11s,   97.2% completed, time steps left  163
  Time to finish  11s,   97.2% completed, time steps left  162
  Time to finish  11s,   97.2% completed, time steps left  161
  Time to finish  11s,   97.2% completed, time steps left  160
  Time to finish  11s,   97.2% completed, time steps left  159
  Time to finish  11s,   97.3% completed, time steps left  158
  Time to finish  11s,   97.3% completed, time steps left  157
  Time to finish  10s,   97.3% completed, time steps left  156
  Time to finish  10s,   97.3% completed, time steps left  155
  Time to finish  10s,   97.3% completed, time steps left  154
  Time to finish  10s,   97.3% completed, time steps left  153
  Time to finish  10s,   97.4% completed, time steps left  152
  Time to finish  10s,   97.4% completed, time steps left  151
  Time to finish  10s,   97.4% completed, time steps left  150
  Time to finish  10s,   97.4% completed, time steps left  149
  Time to finish  10s,   97.4% completed, time steps left  148
  Time to finish  10s,   97.4% completed, time steps left  147
  Time to finish  10s,   97.5% completed, time steps left  146
  Time to finish  10s,   97.5% completed, time steps left  145
  Time to finish  10s,   97.5% completed, time steps left  144
  Time to finish  10s,   97.5% completed, time steps left  143
  Time to finish  10s,   97.5% completed, time steps left  142
  Time to finish   9s,   97.6% completed, time steps left  141
  Time to finish   9s,   97.6% completed, time steps left  140
  Time to finish   9s,   97.6% completed, time steps left  139
  Time to finish   9s,   97.6% completed, time steps left  138
  Time to finish   9s,   97.6% completed, time steps left  137
  Time to finish   9s,   97.6% completed, time steps left  136
  Time to finish   9s,   97.7% completed, time steps left  135
  Time to finish   9s,   97.7% completed, time steps left  134
  Time to finish   9s,   97.7% completed, time steps left  133
  Time to finish   9s,   97.7% completed, time steps left  132
  Time to finish   9s,   97.7% completed, time steps left  131
  Time to finish   9s,   97.7% completed, time steps left  130
  Time to finish   9s,   97.8% completed, time steps left  129
  Time to finish   9s,   97.8% completed, time steps left  128
  Time to finish   9s,   97.8% completed, time steps left  127
  Time to finish   8s,   97.8% completed, time steps left  126
  Time to finish   8s,   97.8% completed, time steps left  125
  Time to finish   8s,   97.8% completed, time steps left  124
  Time to finish   8s,   97.9% completed, time steps left  123
  Time to finish   8s,   97.9% completed, time steps left  122
  Time to finish   8s,   97.9% completed, time steps left  121
  Time to finish   8s,   97.9% completed, time steps left  120
  Time to finish   8s,   97.9% completed, time steps left  119
  Time to finish   8s,   98.0% completed, time steps left  118
  Time to finish   8s,   98.0% completed, time steps left  117
  Time to finish   8s,   98.0% completed, time steps left  116
  Time to finish   8s,   98.0% completed, time steps left  115
  Time to finish   8s,   98.0% completed, time steps left  114
  Time to finish   8s,   98.0% completed, time steps left  113
  Time to finish   8s,   98.1% completed, time steps left  112
  Time to finish   7s,   98.1% completed, time steps left  111
  Time to finish   7s,   98.1% completed, time steps left  110
  Time to finish   7s,   98.1% completed, time steps left  109
  Time to finish   7s,   98.1% completed, time steps left  108
  Time to finish   7s,   98.1% completed, time steps left  107
  Time to finish   7s,   98.2% completed, time steps left  106
  Time to finish   7s,   98.2% completed, time steps left  105
  Time to finish   7s,   98.2% completed, time steps left  104
  Time to finish   7s,   98.2% completed, time steps left  103
  Time to finish   7s,   98.2% completed, time steps left  102
  Time to finish   7s,   98.2% completed, time steps left  101
  Time to finish   7s,   98.3% completed, time steps left  100
  Time to finish   7s,   98.3% completed, time steps left  99
  Time to finish   7s,   98.3% completed, time steps left  98
  Time to finish   7s,   98.3% completed, time steps left  97
  Time to finish   6s,   98.3% completed, time steps left  96
  Time to finish   6s,   98.4% completed, time steps left  95
  Time to finish   6s,   98.4% completed, time steps left  94
  Time to finish   6s,   98.4% completed, time steps left  93
  Time to finish   6s,   98.4% completed, time steps left  92
  Time to finish   6s,   98.4% completed, time steps left  91
  Time to finish   6s,   98.4% completed, time steps left  90
  Time to finish   6s,   98.5% completed, time steps left  89
  Time to finish   6s,   98.5% completed, time steps left  88
  Time to finish   6s,   98.5% completed, time steps left  87
  Time to finish   6s,   98.5% completed, time steps left  86
  Time to finish   6s,   98.5% completed, time steps left  85
  Time to finish   6s,   98.5% completed, time steps left  84
  Time to finish   6s,   98.6% completed, time steps left  83
  Time to finish   5s,   98.6% completed, time steps left  82
  Time to finish   5s,   98.6% completed, time steps left  81
  Time to finish   5s,   98.6% completed, time steps left  80
  Time to finish   5s,   98.6% completed, time steps left  79
  Time to finish   5s,   98.6% completed, time steps left  78
  Time to finish   5s,   98.7% completed, time steps left  77
  Time to finish   5s,   98.7% completed, time steps left  76
  Time to finish   5s,   98.7% completed, time steps left  75
  Time to finish   5s,   98.7% completed, time steps left  74
  Time to finish   5s,   98.7% completed, time steps left  73
  Time to finish   5s,   98.8% completed, time steps left  72
  Time to finish   5s,   98.8% completed, time steps left  71
  Time to finish   5s,   98.8% completed, time steps left  70
  Time to finish   5s,   98.8% completed, time steps left  69
  Time to finish   5s,   98.8% completed, time steps left  68
  Time to finish   4s,   98.8% completed, time steps left  67
  Time to finish   4s,   98.9% completed, time steps left  66
  Time to finish   4s,   98.9% completed, time steps left  65
  Time to finish   4s,   98.9% completed, time steps left  64
  Time to finish   4s,   98.9% completed, time steps left  63
  Time to finish   4s,   98.9% completed, time steps left  62
  Time to finish   4s,   98.9% completed, time steps left  61
  Time to finish   4s,   99.0% completed, time steps left  60
  Time to finish   4s,   99.0% completed, time steps left  59
  Time to finish   4s,   99.0% completed, time steps left  58
  Time to finish   4s,   99.0% completed, time steps left  57
  Time to finish   4s,   99.0% completed, time steps left  56
  Time to finish   4s,   99.0% completed, time steps left  55
  Time to finish   4s,   99.1% completed, time steps left  54
  Time to finish   4s,   99.1% completed, time steps left  53
  Time to finish   3s,   99.1% completed, time steps left  52
  Time to finish   3s,   99.1% completed, time steps left  51
  Time to finish   3s,   99.1% completed, time steps left  50
  Time to finish   3s,   99.1% completed, time steps left  49
  Time to finish   3s,   99.2% completed, time steps left  48
  Time to finish   3s,   99.2% completed, time steps left  47
  Time to finish   3s,   99.2% completed, time steps left  46
  Time to finish   3s,   99.2% completed, time steps left  45
  Time to finish   3s,   99.2% completed, time steps left  44
  Time to finish   3s,   99.3% completed, time steps left  43
  Time to finish   3s,   99.3% completed, time steps left  42
  Time to finish   3s,   99.3% completed, time steps left  41
  Time to finish   3s,   99.3% completed, time steps left  40
  Time to finish   3s,   99.3% completed, time steps left  39
  Time to finish   3s,   99.3% completed, time steps left  38
  Time to finish   2s,   99.4% completed, time steps left  37
  Time to finish   2s,   99.4% completed, time steps left  36
  Time to finish   2s,   99.4% completed, time steps left  35
  Time to finish   2s,   99.4% completed, time steps left  34
  Time to finish   2s,   99.4% completed, time steps left  33
  Time to finish   2s,   99.4% completed, time steps left  32
  Time to finish   2s,   99.5% completed, time steps left  31
  Time to finish   2s,   99.5% completed, time steps left  30
  Time to finish   2s,   99.5% completed, time steps left  29
  Time to finish   2s,   99.5% completed, time steps left  28
  Time to finish   2s,   99.5% completed, time steps left  27
  Time to finish   2s,   99.5% completed, time steps left  26
  Time to finish   2s,   99.6% completed, time steps left  25
  Time to finish   2s,   99.6% completed, time steps left  24
  Time to finish   2s,   99.6% completed, time steps left  23
  Time to finish   1s,   99.6% completed, time steps left  22
  Time to finish   1s,   99.6% completed, time steps left  21
  Time to finish   1s,   99.7% completed, time steps left  20
  Time to finish   1s,   99.7% completed, time steps left  19
  Time to finish   1s,   99.7% completed, time steps left  18
  Time to finish   1s,   99.7% completed, time steps left  17
  Time to finish   1s,   99.7% completed, time steps left  16
  Time to finish   1s,   99.7% completed, time steps left  15
  Time to finish   1s,   99.8% completed, time steps left  14
  Time to finish   1s,   99.8% completed, time steps left  13
  Time to finish   1s,   99.8% completed, time steps left  12
  Time to finish   1s,   99.8% completed, time steps left  11
  Time to finish   1s,   99.8% completed, time steps left  10
  Time to finish   1s,   99.8% completed, time steps left  9
  Time to finish   1s,   99.9% completed, time steps left  8
  Time to finish   0s,   99.9% completed, time steps left  7
  Time to finish   0s,   99.9% completed, time steps left  6
  Time to finish   0s,   99.9% completed, time steps left  5
  Time to finish   0s,   99.9% completed, time steps left  4
  Time to finish   0s,   99.9% completed, time steps left  3
  Time to finish   0s,  100.0% completed, time steps left  2
  Time to finish   0s,  100.0% completed, time steps left  1
 
------------------------------------------------------------------------------
  FINISHED    Delft3D-FLOW
              runid      : simulation
              date, time : 2022-09-22, 00:39:11
*** WARNING Latitude of your model is 0 degrees, model located at equator
*** WARNING no stations and cross-sections defined; HIS-file not created !!
*** WARNING File will not be created - Inconsistent comm. file times
    0 errors and     3 warnings
returning to main program from domain simulation
------------------------------------------------------------------------------
D_Hydro [11.000038] <anonymous> >> d_hydro shutting down normally
